test/data/enwl/networks/network_22/Feeder_5/Loads.dss
New Load.LOAD1 Phases=1 Bus1=185.3 kV=0.23 kW=1 PF=0.95
New Load.LOAD2 Phases=1 Bus1=187.1 kV=0.23 kW=1 PF=0.95
New Load.LOAD3 Phases=1 Bus1=194.1 kV=0.23 kW=1 PF=0.95
New Load.LOAD4 Phases=1 Bus1=197.3 kV=0.23 kW=1 PF=0.95
New Load.LOAD5 Phases=1 Bus1=198.1 kV=0.23 kW=1 PF=0.95
New Load.LOAD6 Phases=1 Bus1=221.3 kV=0.23 kW=1 PF=0.95
New Load.LOAD7 Phases=1 Bus1=239.1 kV=0.23 kW=1 PF=0.95
New Load.LOAD8 Phases=1 Bus1=247.1 kV=0.23 kW=1 PF=0.95
New Load.LOAD9 Phases=1 Bus1=248.2 kV=0.23 kW=1 PF=0.95
New Load.LOAD10 Phases=1 Bus1=255.2 kV=0.23 kW=1 PF=0.95
New Load.LOAD11 Phases=1 Bus1=261.2 kV=0.23 kW=1 PF=0.95
New Load.LOAD12 Phases=1 Bus1=276.1 kV=0.23 kW=1 PF=0.95
New Load.LOAD13 Phases=1 Bus1=281.1 kV=0.23 kW=1 PF=0.95
New Load.LOAD14 Phases=1 Bus1=424.1 kV=0.23 kW=1 PF=0.95
New Load.LOAD15 Phases=1 Bus1=433.1 kV=0.23 kW=1 PF=0.95
New Load.LOAD16 Phases=1 Bus1=435.2 kV=0.23 kW=1 PF=0.95
New Load.LOAD17 Phases=1 Bus1=443.2 kV=0.23 kW=1 PF=0.95
New Load.LOAD18 Phases=1 Bus1=454.2 kV=0.23 kW=1 PF=0.95
New Load.LOAD19 Phases=1 Bus1=460.2 kV=0.23 kW=1 PF=0.95
New Load.LOAD20 Phases=1 Bus1=466.1 kV=0.23 kW=1 PF=0.95
New Load.LOAD21 Phases=1 Bus1=493.3 kV=0.23 kW=1 PF=0.95
New Load.LOAD22 Phases=1 Bus1=501.1 kV=0.23 kW=1 PF=0.95
New Load.LOAD23 Phases=1 Bus1=524.2 kV=0.23 kW=1 PF=0.95
New Load.LOAD24 Phases=1 Bus1=539.2 kV=0.23 kW=1 PF=0.95
New Load.LOAD25 Phases=1 Bus1=560.1 kV=0.23 kW=1 PF=0.95
New Load.LOAD26 Phases=1 Bus1=586.3 kV=0.23 kW=1 PF=0.95
New Load.LOAD27 Phases=1 Bus1=604.3 kV=0.23 kW=1 PF=0.95
New Load.LOAD28 Phases=1 Bus1=615.1 kV=0.23 kW=1 PF=0.95
New Load.LOAD29 Phases=1 Bus1=619.1 kV=0.23 kW=1 PF=0.95